
This summary file was generated by TurbSim (v1.06.00, 21-Sep-2012) on 03-Aug-2022 at 16:02:07.


Runtime Options:

     13428  Random seed #1
    RANLUX  Type of random number generator
         F  Output binary HH turbulence parameters?
         F  Output formatted turbulence parameters?
         T  Output AeroDyn HH files?
         T  Output AeroDyn FF files?
         F  Output BLADED FF files?
         T  Output tower data?
         F  Output formatted FF files?
         F  Output coherent turbulence time step file?
         T  Clockwise rotation when looking downwind?
 0 -  NONE  IEC turbulence models scaled to exact specified standard deviation


Turbine/Model Specifications:

        31  Vertical grid-point matrix dimension
        31  Horizontal grid-point matrix dimension
     0.050  Time step [seconds]
   630.000  Analysis time [seconds]
   600.000  Usable output time [seconds]
    90.000  Hub height [m]
   145.000  Grid height [m]
   145.000  Grid width [m]
     0.000  Vertical flow angle [degrees]
     0.000  Horizontal flow angle [degrees]


Meteorological Boundary Conditions:

    IECKAI  IEC Kaimal spectral model
         1  IEC standard: IEC 61400-1 Ed. 3: 2005
    15.000  Percent turbulence intensity, IEC 61400-1 Ed. 3: 2005
       NTM  IEC Normal Turbulence Model
       N/A  IEC Extreme Turbulence Model (ETM) "c" parameter [m/s]
       PL   Wind profile type
    90.000  Reference height [m]
    18.000  Reference wind speed [m/s]
       N/A  Jet height [m]
     0.200  Power law exponent
     0.030  Surface roughness length [m]


You have requested that the following file(s) be generated:

   90m_141618mps_twr.hh  (AeroDyn hub-height file)
   90m_141618mps_twr.bts (AeroDyn/TurbSim full-field wind file)


Turbulence Simulation Scaling Parameter Summary:

   Turbulence model used                            =  IEC Kaimal
   Turbulence characteristic                        =  User-specified
   IEC standard                                     =  IEC 61400-1 Ed. 3: 2005
   Mean wind speed at hub height                    =   18.000 m/s
   Characteristic value of standard deviation       =    2.700 m/s
   Turbulence scale                                 =   42.000 m
   u-component integral scale                       =  340.200 m
   Coherency scale                                  =  340.200 m
   Characteristic value of hub turbulence intensity =   15.000%
   Gradient Richardson number                       =    0.000

   Wind profile type                                =  Power law
   Power law exponent                               =    0.200
   Mean shear across rotor disk                     =    0.050 (m/s)/m
   Assumed rotor diameter                           =  145.000 m
   Surface roughness length                         =    0.030 m

   Number of time steps in the FFT                  =    12600
   Number of time steps output                      =    12162


Mean Flow Angles:

   Vertical   =   0.0 degrees
   Horizontal =   0.0 degrees

Mean Wind Speed Profile:

   Height    Wind Speed   Horizontal Angle  U-comp (X)   V-comp (Y)   W-comp (Z)
     (m)        (m/s)         (degrees)       (m/s)        (m/s)        (m/s)   
   ------    ----------   ----------------  ----------   ----------   ----------
    162.5       20.26            0.00         20.26         0.00         0.00
    157.7       20.14            0.00         20.14         0.00         0.00
    152.8       20.01            0.00         20.01         0.00         0.00
    148.0       19.88            0.00         19.88         0.00         0.00
    143.2       19.75            0.00         19.75         0.00         0.00
    138.3       19.62            0.00         19.62         0.00         0.00
    133.5       19.48            0.00         19.48         0.00         0.00
    128.7       19.33            0.00         19.33         0.00         0.00
    123.8       19.19            0.00         19.19         0.00         0.00
    119.0       19.03            0.00         19.03         0.00         0.00
    114.2       18.88            0.00         18.88         0.00         0.00
    109.3       18.71            0.00         18.71         0.00         0.00
    104.5       18.55            0.00         18.55         0.00         0.00
     99.7       18.37            0.00         18.37         0.00         0.00
     94.8       18.19            0.00         18.19         0.00         0.00
     90.0       18.00            0.00         18.00         0.00         0.00
     85.2       17.80            0.00         17.80         0.00         0.00
     80.3       17.60            0.00         17.60         0.00         0.00
     75.5       17.38            0.00         17.38         0.00         0.00
     70.7       17.15            0.00         17.15         0.00         0.00
     65.8       16.91            0.00         16.91         0.00         0.00
     61.0       16.65            0.00         16.65         0.00         0.00
     56.2       16.38            0.00         16.38         0.00         0.00
     51.3       16.09            0.00         16.09         0.00         0.00
     46.5       15.77            0.00         15.77         0.00         0.00
     41.7       15.43            0.00         15.43         0.00         0.00
     36.8       15.05            0.00         15.05         0.00         0.00
     32.0       14.64            0.00         14.64         0.00         0.00
     27.2       14.17            0.00         14.17         0.00         0.00
     22.3       13.62            0.00         13.62         0.00         0.00
     17.5       12.97            0.00         12.97         0.00         0.00
     12.7       12.16            0.00         12.16         0.00         0.00
      7.8       11.05            0.00         11.05         0.00         0.00
      3.0        9.12            0.00          9.12         0.00         0.00


Harvested Random Seeds after Generation of the Random Numbers:

    169290450 K1
            0 K2


Hub-Height Simulated Turbulence Statistical Summary:

   Type of Wind        Min (m/s)   Mean (m/s)    Max (m/s)  Sigma (m/s)       TI (%)
   ----------------    ---------   ----------    ---------  -----------       ------
   Longitudinal (u)        10.33        18.00        25.29        2.344       13.021
   Lateral (v)             -7.71         0.00         7.04        2.118       11.765
   Vertical (w)            -4.79         0.00         4.50        1.313        7.297
   U component             10.33        18.00        25.29        2.344       13.021
   V component             -7.71         0.00         7.04        2.118       11.765
   W component             -4.79         0.00         4.50        1.313        7.297
   Horizontal (U&V)        10.54        18.13        25.31        2.330       12.852
   Total                   10.56        18.17        25.33        2.326       12.801

                       Min Reynolds     Mean Reynolds    Max Reynolds    Correlation
   Product             Stress (m/s)^2   Stress (m/s)^2   Stress (m/s)^2  Coefficient
   ----------------    --------------   --------------   --------------  -----------
   u'w'                    -18.718             0.152            18.488         0.049
   u'v'                    -31.184             0.368            33.943         0.074
   v'w'                    -17.197             0.305            24.382         0.110


   Friction Velocity (Ustar)  =      0.390 m/s
   Maximum Instantaneous TKE  =     39.330 (m/s)^2
   Maximum Instantaneous CTKE =     18.026 (m/s)^2


Grid Point Variance Summary:

   Y-coord  -72.50  -67.67  -62.83  -58.00  -53.17  -48.33  -43.50  -38.67  -33.83  -29.00  -24.17  -19.33  -14.50   -9.67   -4.83    0.00    4.83    9.67   14.50   19.33   24.17   29.00   33.83   38.67   43.50   48.33   53.17   58.00   62.83   67.67   72.50

   Height   Standard deviation at grid points for the u component:
   162.50    2.459   2.413   2.534   2.455   2.486   2.566   2.525   2.554   2.658   2.649   2.701   2.707   2.640   2.553   2.680   2.661   2.622   2.562   2.493   2.515   2.636   2.595   2.630   2.754   2.651   2.702   2.690   2.667   2.566   2.690   2.816
   157.67    2.497   2.425   2.450   2.463   2.460   2.464   2.555   2.477   2.587   2.571   2.562   2.570   2.589   2.660   2.624   2.639   2.586   2.520   2.518   2.532   2.588   2.551   2.674   2.662   2.704   2.799   2.745   2.580   2.564   2.709   2.821
   152.83    2.466   2.410   2.443   2.449   2.492   2.381   2.482   2.553   2.596   2.510   2.616   2.530   2.537   2.741   2.620   2.568   2.550   2.499   2.460   2.641   2.563   2.637   2.674   2.713   2.707   2.748   2.690   2.761   2.617   2.767   2.903
   148.00    2.509   2.488   2.549   2.544   2.402   2.408   2.430   2.428   2.615   2.655   2.550   2.620   2.712   2.713   2.731   2.677   2.596   2.469   2.564   2.676   2.541   2.715   2.616   2.633   2.688   2.743   2.743   2.707   2.894   2.786   2.866
   143.17    2.392   2.502   2.541   2.392   2.429   2.507   2.426   2.503   2.532   2.607   2.628   2.651   2.775   2.879   2.686   2.704   2.551   2.598   2.584   2.644   2.669   2.659   2.603   2.686   2.742   2.822   2.602   2.626   2.803   2.829   2.680
   138.33    2.387   2.484   2.551   2.378   2.447   2.434   2.529   2.489   2.638   2.686   2.789   2.795   2.786   2.791   2.708   2.722   2.607   2.592   2.599   2.596   2.515   2.615   2.651   2.597   2.637   2.720   2.574   2.563   2.648   2.638   2.637
   133.50    2.320   2.426   2.446   2.362   2.395   2.569   2.485   2.527   2.588   2.767   2.731   2.846   2.655   2.674   2.645   2.597   2.543   2.611   2.512   2.398   2.397   2.450   2.569   2.647   2.634   2.707   2.589   2.583   2.578   2.481   2.440
   128.67    2.408   2.399   2.380   2.310   2.325   2.430   2.534   2.543   2.654   2.656   2.727   2.759   2.674   2.739   2.645   2.551   2.523   2.548   2.471   2.379   2.464   2.452   2.532   2.590   2.698   2.667   2.554   2.516   2.551   2.440   2.455
   123.83    2.316   2.190   2.378   2.280   2.385   2.417   2.515   2.655   2.582   2.639   2.749   2.759   2.666   2.636   2.600   2.491   2.516   2.539   2.498   2.434   2.428   2.432   2.412   2.513   2.619   2.632   2.597   2.503   2.413   2.423   2.429
   119.00    2.219   2.271   2.371   2.331   2.344   2.384   2.490   2.626   2.579   2.615   2.637   2.688   2.572   2.614   2.486   2.592   2.485   2.439   2.384   2.446   2.361   2.367   2.267   2.402   2.527   2.583   2.521   2.532   2.531   2.500   2.449
   114.17    2.431   2.401   2.383   2.383   2.321   2.370   2.437   2.513   2.635   2.575   2.588   2.482   2.515   2.518   2.544   2.438   2.410   2.420   2.306   2.331   2.409   2.449   2.429   2.365   2.452   2.342   2.471   2.596   2.549   2.468   2.423
   109.33    2.589   2.511   2.447   2.399   2.269   2.309   2.428   2.538   2.539   2.481   2.427   2.316   2.334   2.393   2.320   2.413   2.410   2.418   2.423   2.375   2.247   2.349   2.297   2.317   2.324   2.408   2.420   2.550   2.541   2.463   2.397
   104.50    2.618   2.687   2.653   2.458   2.454   2.390   2.473   2.594   2.606   2.581   2.446   2.418   2.214   2.326   2.303   2.254   2.309   2.419   2.371   2.342   2.350   2.389   2.319   2.315   2.397   2.253   2.390   2.442   2.512   2.532   2.454
    99.67    2.646   2.671   2.499   2.479   2.477   2.486   2.460   2.483   2.504   2.602   2.501   2.426   2.448   2.370   2.385   2.312   2.341   2.310   2.297   2.324   2.373   2.299   2.400   2.392   2.361   2.270   2.364   2.294   2.397   2.294   2.277
    94.83    2.568   2.664   2.431   2.447   2.512   2.549   2.496   2.390   2.423   2.449   2.492   2.477   2.480   2.437   2.386   2.336   2.268   2.246   2.364   2.368   2.447   2.370   2.400   2.492   2.364   2.265   2.312   2.327   2.291   2.230   2.210
    90.00    2.652   2.623   2.558   2.651   2.738   2.587   2.524   2.510   2.446   2.478   2.475   2.591   2.602   2.508   2.375   2.344   2.363   2.392   2.438   2.379   2.447   2.486   2.404   2.483   2.418   2.331   2.255   2.240   2.235   2.167   2.235
    85.17    2.597   2.713   2.715   2.672   2.774   2.665   2.637   2.473   2.519   2.563   2.538   2.660   2.707   2.564   2.418   2.399   2.339   2.445   2.454   2.546   2.499   2.478   2.450   2.418   2.527   2.275   2.202   2.185   2.197   2.266   2.276
    80.33    2.538   2.672   2.625   2.658   2.718   2.646   2.614   2.658   2.487   2.523   2.550   2.563   2.687   2.600   2.579   2.429   2.432   2.502   2.444   2.554   2.498   2.566   2.480   2.396   2.363   2.297   2.155   2.158   2.237   2.295   2.302
    75.50    2.662   2.730   2.646   2.612   2.697   2.648   2.599   2.578   2.399   2.543   2.590   2.675   2.743   2.639   2.679   2.626   2.459   2.516   2.472   2.520   2.477   2.515   2.438   2.395   2.378   2.394   2.275   2.190   2.182   2.328   2.323
    70.67    2.781   2.796   2.765   2.774   2.791   2.724   2.618   2.574   2.349   2.443   2.615   2.731   2.681   2.663   2.659   2.610   2.573   2.590   2.530   2.535   2.569   2.578   2.531   2.426   2.447   2.482   2.401   2.350   2.211   2.313   2.270
    65.83    2.833   2.745   2.755   2.743   2.816   2.681   2.674   2.502   2.448   2.572   2.602   2.666   2.688   2.653   2.601   2.645   2.570   2.513   2.703   2.630   2.678   2.667   2.504   2.524   2.499   2.492   2.271   2.258   2.225   2.302   2.228
    61.00    2.784   2.820   2.700   2.650   2.689   2.759   2.615   2.594   2.531   2.552   2.482   2.620   2.644   2.649   2.659   2.627   2.657   2.615   2.696   2.678   2.643   2.613   2.413   2.431   2.425   2.291   2.345   2.335   2.268   2.196   2.163
    56.17    2.699   2.811   2.766   2.771   2.655   2.715   2.678   2.565   2.572   2.600   2.468   2.533   2.598   2.634   2.651   2.604   2.664   2.706   2.734   2.652   2.586   2.491   2.489   2.365   2.393   2.415   2.394   2.321   2.248   2.252   2.261
    51.33    2.618   2.748   2.772   2.722   2.662   2.674   2.684   2.715   2.658   2.636   2.503   2.626   2.645   2.602   2.650   2.543   2.694   2.619   2.584   2.581   2.636   2.454   2.482   2.473   2.417   2.473   2.442   2.292   2.400   2.342   2.333
    46.50    2.644   2.685   2.706   2.789   2.697   2.615   2.693   2.678   2.657   2.710   2.611   2.654   2.701   2.703   2.621   2.596   2.567   2.568   2.517   2.496   2.439   2.514   2.471   2.456   2.383   2.476   2.417   2.332   2.411   2.347   2.338
    41.67    2.576   2.637   2.796   2.782   2.840   2.702   2.671   2.585   2.698   2.643   2.692   2.716   2.773   2.757   2.646   2.575   2.456   2.492   2.516   2.443   2.542   2.485   2.411   2.461   2.338   2.401   2.348   2.362   2.386   2.417   2.325
    36.83    2.419   2.698   2.733   2.741   2.679   2.713   2.652   2.596   2.627   2.644   2.569   2.669   2.698   2.690   2.653   2.558   2.502   2.529   2.500   2.435   2.552   2.560   2.547   2.411   2.505   2.319   2.348   2.318   2.292   2.417   2.366
    32.00    2.586   2.568   2.692   2.662   2.710   2.788   2.616   2.532   2.586   2.583   2.526   2.652   2.615   2.656   2.680   2.643   2.527   2.507   2.515   2.442   2.399   2.482   2.497   2.438   2.396   2.300   2.300   2.311   2.253   2.321   2.412
    27.17    2.580   2.640   2.729   2.696   2.776   2.779   2.676   2.590   2.550   2.672   2.637   2.592   2.682   2.694   2.606   2.574   2.552   2.412   2.370   2.438   2.417   2.467   2.461   2.425   2.348   2.405   2.381   2.411   2.349   2.334   2.311
    22.33    2.600   2.514   2.647   2.679   2.784   2.716   2.714   2.680   2.654   2.729   2.654   2.608   2.770   2.704   2.638   2.556   2.528   2.491   2.447   2.446   2.310   2.357   2.383   2.423   2.355   2.366   2.478   2.378   2.385   2.425   2.434
    17.50    2.609   2.572   2.630   2.642   2.711   2.644   2.632   2.580   2.529   2.611   2.626   2.746   2.760   2.753   2.771   2.639   2.636   2.557   2.487   2.413   2.354   2.369   2.415   2.495   2.484   2.400   2.433   2.322   2.406   2.307   2.495

   Height   Standard deviation at grid points for the v component:
   162.50    2.118   2.118   2.118   2.118   2.118   2.118   2.118   2.118   2.118   2.118   2.118   2.118   2.118   2.118   2.118   2.118   2.118   2.118   2.118   2.118   2.118   2.118   2.118   2.118   2.118   2.118   2.118   2.118   2.118   2.118   2.118
   157.67    2.118   2.118   2.118   2.118   2.118   2.118   2.118   2.118   2.118   2.118   2.118   2.118   2.118   2.118   2.118   2.118   2.118   2.118   2.118   2.118   2.118   2.118   2.118   2.118   2.118   2.118   2.118   2.118   2.118   2.118   2.118
   152.83    2.118   2.118   2.118   2.118   2.118   2.118   2.118   2.118   2.118   2.118   2.118   2.118   2.118   2.118   2.118   2.118   2.118   2.118   2.118   2.118   2.118   2.118   2.118   2.118   2.118   2.118   2.118   2.118   2.118   2.118   2.118
   148.00    2.118   2.118   2.118   2.118   2.118   2.118   2.118   2.118   2.118   2.118   2.118   2.118   2.118   2.118   2.118   2.118   2.118   2.118   2.118   2.118   2.118   2.118   2.118   2.118   2.118   2.118   2.118   2.118   2.118   2.118   2.118
   143.17    2.118   2.118   2.118   2.118   2.118   2.118   2.118   2.118   2.118   2.118   2.118   2.118   2.118   2.118   2.118   2.118   2.118   2.118   2.118   2.118   2.118   2.118   2.118   2.118   2.118   2.118   2.118   2.118   2.118   2.118   2.118
   138.33    2.118   2.118   2.118   2.118   2.118   2.118   2.118   2.118   2.118   2.118   2.118   2.118   2.118   2.118   2.118   2.118   2.118   2.118   2.118   2.118   2.118   2.118   2.118   2.118   2.118   2.118   2.118   2.118   2.118   2.118   2.118
   133.50    2.118   2.118   2.118   2.118   2.118   2.118   2.118   2.118   2.118   2.118   2.118   2.118   2.118   2.118   2.118   2.118   2.118   2.118   2.118   2.118   2.118   2.118   2.118   2.118   2.118   2.118   2.118   2.118   2.118   2.118   2.118
   128.67    2.118   2.118   2.118   2.118   2.118   2.118   2.118   2.118   2.118   2.118   2.118   2.118   2.118   2.118   2.118   2.118   2.118   2.118   2.118   2.118   2.118   2.118   2.118   2.118   2.118   2.118   2.118   2.118   2.118   2.118   2.118
   123.83    2.118   2.118   2.118   2.118   2.118   2.118   2.118   2.118   2.118   2.118   2.118   2.118   2.118   2.118   2.118   2.118   2.118   2.118   2.118   2.118   2.118   2.118   2.118   2.118   2.118   2.118   2.118   2.118   2.118   2.118   2.118
   119.00    2.118   2.118   2.118   2.118   2.118   2.118   2.118   2.118   2.118   2.118   2.118   2.118   2.118   2.118   2.118   2.118   2.118   2.118   2.118   2.118   2.118   2.118   2.118   2.118   2.118   2.118   2.118   2.118   2.118   2.118   2.118
   114.17    2.118   2.118   2.118   2.118   2.118   2.118   2.118   2.118   2.118   2.118   2.118   2.118   2.118   2.118   2.118   2.118   2.118   2.118   2.118   2.118   2.118   2.118   2.118   2.118   2.118   2.118   2.118   2.118   2.118   2.118   2.118
   109.33    2.118   2.118   2.118   2.118   2.118   2.118   2.118   2.118   2.118   2.118   2.118   2.118   2.118   2.118   2.118   2.118   2.118   2.118   2.118   2.118   2.118   2.118   2.118   2.118   2.118   2.118   2.118   2.118   2.118   2.118   2.118
   104.50    2.118   2.118   2.118   2.118   2.118   2.118   2.118   2.118   2.118   2.118   2.118   2.118   2.118   2.118   2.118   2.118   2.118   2.118   2.118   2.118   2.118   2.118   2.118   2.118   2.118   2.118   2.118   2.118   2.118   2.118   2.118
    99.67    2.118   2.118   2.118   2.118   2.118   2.118   2.118   2.118   2.118   2.118   2.118   2.118   2.118   2.118   2.118   2.118   2.118   2.118   2.118   2.118   2.118   2.118   2.118   2.118   2.118   2.118   2.118   2.118   2.118   2.118   2.118
    94.83    2.118   2.118   2.118   2.118   2.118   2.118   2.118   2.118   2.118   2.118   2.118   2.118   2.118   2.118   2.118   2.118   2.118   2.118   2.118   2.118   2.118   2.118   2.118   2.118   2.118   2.118   2.118   2.118   2.118   2.118   2.118
    90.00    2.118   2.118   2.118   2.118   2.118   2.118   2.118   2.118   2.118   2.118   2.118   2.118   2.118   2.118   2.118   2.118   2.118   2.118   2.118   2.118   2.118   2.118   2.118   2.118   2.118   2.118   2.118   2.118   2.118   2.118   2.118
    85.17    2.118   2.118   2.118   2.118   2.118   2.118   2.118   2.118   2.118   2.118   2.118   2.118   2.118   2.118   2.118   2.118   2.118   2.118   2.118   2.118   2.118   2.118   2.118   2.118   2.118   2.118   2.118   2.118   2.118   2.118   2.118
    80.33    2.118   2.118   2.118   2.118   2.118   2.118   2.118   2.118   2.118   2.118   2.118   2.118   2.118   2.118   2.118   2.118   2.118   2.118   2.118   2.118   2.118   2.118   2.118   2.118   2.118   2.118   2.118   2.118   2.118   2.118   2.118
    75.50    2.118   2.118   2.118   2.118   2.118   2.118   2.118   2.118   2.118   2.118   2.118   2.118   2.118   2.118   2.118   2.118   2.118   2.118   2.118   2.118   2.118   2.118   2.118   2.118   2.118   2.118   2.118   2.118   2.118   2.118   2.118
    70.67    2.118   2.118   2.118   2.118   2.118   2.118   2.118   2.118   2.118   2.118   2.118   2.118   2.118   2.118   2.118   2.118   2.118   2.118   2.118   2.118   2.118   2.118   2.118   2.118   2.118   2.118   2.118   2.118   2.118   2.118   2.118
    65.83    2.118   2.118   2.118   2.118   2.118   2.118   2.118   2.118   2.118   2.118   2.118   2.118   2.118   2.118   2.118   2.118   2.118   2.118   2.118   2.118   2.118   2.118   2.118   2.118   2.118   2.118   2.118   2.118   2.118   2.118   2.118
    61.00    2.118   2.118   2.118   2.118   2.118   2.118   2.118   2.118   2.118   2.118   2.118   2.118   2.118   2.118   2.118   2.118   2.118   2.118   2.118   2.118   2.118   2.118   2.118   2.118   2.118   2.118   2.118   2.118   2.118   2.118   2.118
    56.17    2.118   2.118   2.118   2.118   2.118   2.118   2.118   2.118   2.118   2.118   2.118   2.118   2.118   2.118   2.118   2.118   2.118   2.118   2.118   2.118   2.118   2.118   2.118   2.118   2.118   2.118   2.118   2.118   2.118   2.118   2.118
    51.33    2.118   2.118   2.118   2.118   2.118   2.118   2.118   2.118   2.118   2.118   2.118   2.118   2.118   2.118   2.118   2.118   2.118   2.118   2.118   2.118   2.118   2.118   2.118   2.118   2.118   2.118   2.118   2.118   2.118   2.118   2.118
    46.50    2.118   2.118   2.118   2.118   2.118   2.118   2.118   2.118   2.118   2.118   2.118   2.118   2.118   2.118   2.118   2.118   2.118   2.118   2.118   2.118   2.118   2.118   2.118   2.118   2.118   2.118   2.118   2.118   2.118   2.118   2.118
    41.67    2.118   2.118   2.118   2.118   2.118   2.118   2.118   2.118   2.118   2.118   2.118   2.118   2.118   2.118   2.118   2.118   2.118   2.118   2.118   2.118   2.118   2.118   2.118   2.118   2.118   2.118   2.118   2.118   2.118   2.118   2.118
    36.83    2.118   2.118   2.118   2.118   2.118   2.118   2.118   2.118   2.118   2.118   2.118   2.118   2.118   2.118   2.118   2.118   2.118   2.118   2.118   2.118   2.118   2.118   2.118   2.118   2.118   2.118   2.118   2.118   2.118   2.118   2.118
    32.00    2.118   2.118   2.118   2.118   2.118   2.118   2.118   2.118   2.118   2.118   2.118   2.118   2.118   2.118   2.118   2.118   2.118   2.118   2.118   2.118   2.118   2.118   2.118   2.118   2.118   2.118   2.118   2.118   2.118   2.118   2.118
    27.17    2.118   2.118   2.118   2.118   2.118   2.118   2.118   2.118   2.118   2.118   2.118   2.118   2.118   2.118   2.118   2.118   2.118   2.118   2.118   2.118   2.118   2.118   2.118   2.118   2.118   2.118   2.118   2.118   2.118   2.118   2.118
    22.33    2.118   2.118   2.118   2.118   2.118   2.118   2.118   2.118   2.118   2.118   2.118   2.118   2.118   2.118   2.118   2.118   2.118   2.118   2.118   2.118   2.118   2.118   2.118   2.118   2.118   2.118   2.118   2.118   2.118   2.118   2.118
    17.50    2.118   2.118   2.118   2.118   2.118   2.118   2.118   2.118   2.118   2.118   2.118   2.118   2.118   2.118   2.118   2.118   2.118   2.118   2.118   2.118   2.118   2.118   2.118   2.118   2.118   2.118   2.118   2.118   2.118   2.118   2.118

   Height   Standard deviation at grid points for the w component:
   162.50    1.313   1.313   1.313   1.313   1.313   1.313   1.313   1.313   1.313   1.313   1.313   1.313   1.313   1.313   1.313   1.313   1.313   1.313   1.313   1.313   1.313   1.313   1.313   1.313   1.313   1.313   1.313   1.313   1.313   1.313   1.313
   157.67    1.313   1.313   1.313   1.313   1.313   1.313   1.313   1.313   1.313   1.313   1.313   1.313   1.313   1.313   1.313   1.313   1.313   1.313   1.313   1.313   1.313   1.313   1.313   1.313   1.313   1.313   1.313   1.313   1.313   1.313   1.313
   152.83    1.313   1.313   1.313   1.313   1.313   1.313   1.313   1.313   1.313   1.313   1.313   1.313   1.313   1.313   1.313   1.313   1.313   1.313   1.313   1.313   1.313   1.313   1.313   1.313   1.313   1.313   1.313   1.313   1.313   1.313   1.313
   148.00    1.313   1.313   1.313   1.313   1.313   1.313   1.313   1.313   1.313   1.313   1.313   1.313   1.313   1.313   1.313   1.313   1.313   1.313   1.313   1.313   1.313   1.313   1.313   1.313   1.313   1.313   1.313   1.313   1.313   1.313   1.313
   143.17    1.313   1.313   1.313   1.313   1.313   1.313   1.313   1.313   1.313   1.313   1.313   1.313   1.313   1.313   1.313   1.313   1.313   1.313   1.313   1.313   1.313   1.313   1.313   1.313   1.313   1.313   1.313   1.313   1.313   1.313   1.313
   138.33    1.313   1.313   1.313   1.313   1.313   1.313   1.313   1.313   1.313   1.313   1.313   1.313   1.313   1.313   1.313   1.313   1.313   1.313   1.313   1.313   1.313   1.313   1.313   1.313   1.313   1.313   1.313   1.313   1.313   1.313   1.313
   133.50    1.313   1.313   1.313   1.313   1.313   1.313   1.313   1.313   1.313   1.313   1.313   1.313   1.313   1.313   1.313   1.313   1.313   1.313   1.313   1.313   1.313   1.313   1.313   1.313   1.313   1.313   1.313   1.313   1.313   1.313   1.313
   128.67    1.313   1.313   1.313   1.313   1.313   1.313   1.313   1.313   1.313   1.313   1.313   1.313   1.313   1.313   1.313   1.313   1.313   1.313   1.313   1.313   1.313   1.313   1.313   1.313   1.313   1.313   1.313   1.313   1.313   1.313   1.313
   123.83    1.313   1.313   1.313   1.313   1.313   1.313   1.313   1.313   1.313   1.313   1.313   1.313   1.313   1.313   1.313   1.313   1.313   1.313   1.313   1.313   1.313   1.313   1.313   1.313   1.313   1.313   1.313   1.313   1.313   1.313   1.313
   119.00    1.313   1.313   1.313   1.313   1.313   1.313   1.313   1.313   1.313   1.313   1.313   1.313   1.313   1.313   1.313   1.313   1.313   1.313   1.313   1.313   1.313   1.313   1.313   1.313   1.313   1.313   1.313   1.313   1.313   1.313   1.313
   114.17    1.313   1.313   1.313   1.313   1.313   1.313   1.313   1.313   1.313   1.313   1.313   1.313   1.313   1.313   1.313   1.313   1.313   1.313   1.313   1.313   1.313   1.313   1.313   1.313   1.313   1.313   1.313   1.313   1.313   1.313   1.313
   109.33    1.313   1.313   1.313   1.313   1.313   1.313   1.313   1.313   1.313   1.313   1.313   1.313   1.313   1.313   1.313   1.313   1.313   1.313   1.313   1.313   1.313   1.313   1.313   1.313   1.313   1.313   1.313   1.313   1.313   1.313   1.313
   104.50    1.313   1.313   1.313   1.313   1.313   1.313   1.313   1.313   1.313   1.313   1.313   1.313   1.313   1.313   1.313   1.313   1.313   1.313   1.313   1.313   1.313   1.313   1.313   1.313   1.313   1.313   1.313   1.313   1.313   1.313   1.313
    99.67    1.313   1.313   1.313   1.313   1.313   1.313   1.313   1.313   1.313   1.313   1.313   1.313   1.313   1.313   1.313   1.313   1.313   1.313   1.313   1.313   1.313   1.313   1.313   1.313   1.313   1.313   1.313   1.313   1.313   1.313   1.313
    94.83    1.313   1.313   1.313   1.313   1.313   1.313   1.313   1.313   1.313   1.313   1.313   1.313   1.313   1.313   1.313   1.313   1.313   1.313   1.313   1.313   1.313   1.313   1.313   1.313   1.313   1.313   1.313   1.313   1.313   1.313   1.313
    90.00    1.313   1.313   1.313   1.313   1.313   1.313   1.313   1.313   1.313   1.313   1.313   1.313   1.313   1.313   1.313   1.313   1.313   1.313   1.313   1.313   1.313   1.313   1.313   1.313   1.313   1.313   1.313   1.313   1.313   1.313   1.313
    85.17    1.313   1.313   1.313   1.313   1.313   1.313   1.313   1.313   1.313   1.313   1.313   1.313   1.313   1.313   1.313   1.313   1.313   1.313   1.313   1.313   1.313   1.313   1.313   1.313   1.313   1.313   1.313   1.313   1.313   1.313   1.313
    80.33    1.313   1.313   1.313   1.313   1.313   1.313   1.313   1.313   1.313   1.313   1.313   1.313   1.313   1.313   1.313   1.313   1.313   1.313   1.313   1.313   1.313   1.313   1.313   1.313   1.313   1.313   1.313   1.313   1.313   1.313   1.313
    75.50    1.313   1.313   1.313   1.313   1.313   1.313   1.313   1.313   1.313   1.313   1.313   1.313   1.313   1.313   1.313   1.313   1.313   1.313   1.313   1.313   1.313   1.313   1.313   1.313   1.313   1.313   1.313   1.313   1.313   1.313   1.313
    70.67    1.313   1.313   1.313   1.313   1.313   1.313   1.313   1.313   1.313   1.313   1.313   1.313   1.313   1.313   1.313   1.313   1.313   1.313   1.313   1.313   1.313   1.313   1.313   1.313   1.313   1.313   1.313   1.313   1.313   1.313   1.313
    65.83    1.313   1.313   1.313   1.313   1.313   1.313   1.313   1.313   1.313   1.313   1.313   1.313   1.313   1.313   1.313   1.313   1.313   1.313   1.313   1.313   1.313   1.313   1.313   1.313   1.313   1.313   1.313   1.313   1.313   1.313   1.313
    61.00    1.313   1.313   1.313   1.313   1.313   1.313   1.313   1.313   1.313   1.313   1.313   1.313   1.313   1.313   1.313   1.313   1.313   1.313   1.313   1.313   1.313   1.313   1.313   1.313   1.313   1.313   1.313   1.313   1.313   1.313   1.313
    56.17    1.313   1.313   1.313   1.313   1.313   1.313   1.313   1.313   1.313   1.313   1.313   1.313   1.313   1.313   1.313   1.313   1.313   1.313   1.313   1.313   1.313   1.313   1.313   1.313   1.313   1.313   1.313   1.313   1.313   1.313   1.313
    51.33    1.313   1.313   1.313   1.313   1.313   1.313   1.313   1.313   1.313   1.313   1.313   1.313   1.313   1.313   1.313   1.313   1.313   1.313   1.313   1.313   1.313   1.313   1.313   1.313   1.313   1.313   1.313   1.313   1.313   1.313   1.313
    46.50    1.313   1.313   1.313   1.313   1.313   1.313   1.313   1.313   1.313   1.313   1.313   1.313   1.313   1.313   1.313   1.313   1.313   1.313   1.313   1.313   1.313   1.313   1.313   1.313   1.313   1.313   1.313   1.313   1.313   1.313   1.313
    41.67    1.313   1.313   1.313   1.313   1.313   1.313   1.313   1.313   1.313   1.313   1.313   1.313   1.313   1.313   1.313   1.313   1.313   1.313   1.313   1.313   1.313   1.313   1.313   1.313   1.313   1.313   1.313   1.313   1.313   1.313   1.313
    36.83    1.313   1.313   1.313   1.313   1.313   1.313   1.313   1.313   1.313   1.313   1.313   1.313   1.313   1.313   1.313   1.313   1.313   1.313   1.313   1.313   1.313   1.313   1.313   1.313   1.313   1.313   1.313   1.313   1.313   1.313   1.313
    32.00    1.313   1.313   1.313   1.313   1.313   1.313   1.313   1.313   1.313   1.313   1.313   1.313   1.313   1.313   1.313   1.313   1.313   1.313   1.313   1.313   1.313   1.313   1.313   1.313   1.313   1.313   1.313   1.313   1.313   1.313   1.313
    27.17    1.313   1.313   1.313   1.313   1.313   1.313   1.313   1.313   1.313   1.313   1.313   1.313   1.313   1.313   1.313   1.313   1.313   1.313   1.313   1.313   1.313   1.313   1.313   1.313   1.313   1.313   1.313   1.313   1.313   1.313   1.313
    22.33    1.313   1.313   1.313   1.313   1.313   1.313   1.313   1.313   1.313   1.313   1.313   1.313   1.313   1.313   1.313   1.313   1.313   1.313   1.313   1.313   1.313   1.313   1.313   1.313   1.313   1.313   1.313   1.313   1.313   1.313   1.313
    17.50    1.313   1.313   1.313   1.313   1.313   1.313   1.313   1.313   1.313   1.313   1.313   1.313   1.313   1.313   1.313   1.313   1.313   1.313   1.313   1.313   1.313   1.313   1.313   1.313   1.313   1.313   1.313   1.313   1.313   1.313   1.313

   Mean standard deviation across all grid points:
      u component:    2.528 m/s
      v component:    2.118 m/s
      w component:    1.313 m/s


U-component (X) statistics from the hub grid point:

   Mean =  18.0000 m/s
   TI   =  13.0213 %

Nyquist frequency of turbulent wind field =        10.000 Hz


Processing complete.  329.56 CPU seconds used.
